
 OpenBabel08202419093D

 67 71  0  0  0  0  0  0  0  0999 V2000
   23.5040   43.6420   17.7120 C   0  0  0  0  0  0  0  0  0  0  0  0
   22.8850   44.8090   17.4960 N   0  0  0  0  0  0  0  0  0  0  0  0
   22.2550   44.8740   16.3290 C   0  0  0  0  0  2  0  0  0  0  0  0
   22.1710   43.8930   15.4450 N   0  0  0  0  0  0  0  0  0  0  0  0
   22.7630   42.7500   15.7880 C   0  0  0  0  0  0  0  0  0  0  0  0
   22.6750   41.6590   14.9330 N   0  0  0  0  0  0  0  0  0  0  0  0
   23.4500   42.5820   16.9080 N   0  0  0  0  0  2  0  0  0  0  0  0
   22.9320   40.7850   15.3650 H   0  0  0  0  0  0  0  0  0  0  0  0
   25.6580   42.9450   18.8410 C   0  0  0  0  0  0  0  0  0  0  0  0
   26.4200   42.8260   19.9610 N   0  0  0  0  0  0  0  0  0  0  0  0
   25.9850   43.3660   21.1110 C   0  0  0  0  0  3  0  0  0  0  0  0
   24.7760   44.0150   21.2390 C   0  0  0  0  0  3  0  0  0  0  0  0
   23.9570   44.0740   20.1200 C   0  0  0  0  0  3  0  0  0  0  0  0
   24.3810   43.5390   18.8820 C   0  0  0  0  0  0  0  0  0  0  0  0
   26.2950   42.6370   17.5990 N   0  0  0  0  0  0  0  0  0  0  0  0
   27.1470   42.1080   17.7960 H   0  0  0  0  0  0  0  0  0  0  0  0
   27.0810   45.5520   18.2000 C   0  0  0  0  0  1  0  0  0  0  0  0
   26.7290   44.9660   16.8570 C   0  0  0  0  0  0  0  0  0  0  0  0
   26.6480   45.8860   15.8020 C   0  0  0  0  0  3  0  0  0  0  0  0
   26.5400   45.4630   14.4800 C   0  0  0  0  0  3  0  0  0  0  0  0
   26.5920   44.1150   14.1520 C   0  0  0  0  0  0  0  0  0  0  0  0
   26.5330   43.1880   15.2090 C   0  0  0  0  0  3  0  0  0  0  0  0
   26.5570   43.5950   16.5700 C   0  0  0  0  0  0  0  0  0  0  0  0
   26.7140   43.6510   12.8120 N   0  0  0  0  0  0  0  0  0  0  0  0
   27.8380   43.8180   12.0070 C   0  0  0  0  0  0  0  0  0  0  0  0
   28.8600   44.3890   12.3230 O   0  0  0  0  0  0  0  0  0  0  0  0
   25.8780   43.2390   12.4140 H   0  0  0  0  0  0  0  0  0  0  0  0
   27.7660   43.2890   10.5930 C   0  0  0  0  0  0  0  0  0  0  0  0
   28.8490   42.6850    9.9500 C   0  0  0  0  0  3  0  0  0  0  0  0
   28.7530   42.3100    8.6070 C   0  0  0  0  0  3  0  0  0  0  0  0
   27.5560   42.4760    7.9080 C   0  0  0  0  0  3  0  0  0  0  0  0
   26.4350   43.0180    8.5510 C   0  0  0  0  0  0  0  0  0  0  0  0
   26.5590   43.4520    9.8860 C   0  0  0  0  0  3  0  0  0  0  0  0
   25.1110   43.1010    7.8230 C   0  0  0  0  0  0  0  0  0  0  0  0
   25.2480   43.3850    6.4940 F   0  0  0  0  0  0  0  0  0  0  0  0
   24.4130   41.9320    7.8720 F   0  0  0  0  0  0  0  0  0  0  0  0
   24.2830   44.0580    8.3200 F   0  0  0  0  0  0  0  0  0  0  0  0
   22.5690   41.7100   13.5390 C   0  0  0  0  0  0  0  0  0  0  0  0
   23.6020   42.2450   12.7560 C   0  0  0  0  0  3  0  0  0  0  0  0
   23.4530   42.4390   11.3840 C   0  0  0  0  0  3  0  0  0  0  0  0
   22.2540   42.0960   10.7680 C   0  0  0  0  0  0  0  0  0  0  0  0
   21.2210   41.5500   11.5340 C   0  0  0  0  0  3  0  0  0  0  0  0
   21.3800   41.3450   12.9090 C   0  0  0  0  0  3  0  0  0  0  0  0
   21.9740   42.2780    9.4420 O   0  0  0  0  0  0  0  0  0  0  0  0
   20.7030   42.8660    9.1520 C   0  0  0  0  0  2  0  0  0  0  0  0
   20.4580   42.7720    7.6460 C   0  0  0  0  0  2  0  0  0  0  0  0
   19.1320   42.2810    7.3310 N   0  0  0  0  0  0  0  0  0  0  0  0
   18.3420   42.9440    6.4180 C   0  0  0  0  0  0  0  0  0  0  0  0
   18.6990   43.9670    5.8350 O   0  0  0  0  0  0  0  0  0  0  0  0
   18.7900   41.4220    7.7490 H   0  0  0  0  0  0  0  0  0  0  0  0
   16.9520   42.3460    6.2200 C   0  0  0  0  0  2  0  0  0  0  0  0
   16.0610   42.6700    7.2810 O   0  0  0  0  0  0  0  0  0  0  0  0
   15.6740   41.5080    8.0240 C   0  0  0  0  0  2  0  0  0  0  0  0
   15.8700   41.7930    9.5060 C   0  0  0  0  0  2  0  0  0  0  0  0
   17.2160   42.1970    9.7460 O   0  0  0  0  0  0  0  0  0  0  0  0
   17.2740   43.5370   10.2320 C   0  0  0  0  0  2  0  0  0  0  0  0
   16.1540   43.7440   11.2420 C   0  0  0  0  0  2  0  0  0  0  0  0
   15.2930   44.7910   10.7930 O   0  0  0  0  0  0  0  0  0  0  0  0
   15.0540   45.7420   11.8250 C   0  0  0  0  0  2  0  0  0  0  0  0
   14.6170   47.0560   11.1880 C   0  0  0  0  0  2  0  0  0  0  0  0
   15.2110   47.1860    9.8880 O   0  0  0  0  0  0  0  0  0  0  0  0
   14.2540   47.6570    8.9380 C   0  0  0  0  0  2  0  0  0  0  0  0
   13.8490   46.4890    8.0400 C   0  0  0  0  0  2  0  0  0  0  0  0
   14.9770   45.5210    7.9100 N   0  0  0  0  0  4  0  0  0  0  0  0
   15.8120   45.9570    7.5010 H   0  0  0  0  0  0  0  0  0  0  0  0
   14.7150   44.7220    7.3200 H   0  0  0  0  0  0  0  0  0  0  0  0
   15.2470   45.1570    8.8370 H   0  0  0  0  0  0  0  0  0  0  0  0
  1 14  1  0  0  0  0
  2  1  2  0  0  0  0
  3  2  1  0  0  0  0
  4  5  2  0  0  0  0
  4  3  1  0  0  0  0
  5  7  1  0  0  0  0
  6  8  1  0  0  0  0
  6  5  1  0  0  0  0
  7  1  1  0  0  0  0
  9 14  2  0  0  0  0
  9 10  1  0  0  0  0
 10 11  2  0  0  0  0
 11 12  1  0  0  0  0
 13 12  2  0  0  0  0
 14 13  1  0  0  0  0
 15 16  1  0  0  0  0
 15  9  1  0  0  0  0
 18 17  1  0  0  0  0
 19 18  2  0  0  0  0
 20 19  1  0  0  0  0
 21 20  2  0  0  0  0
 21 22  1  0  0  0  0
 22 23  2  0  0  0  0
 23 18  1  0  0  0  0
 23 15  1  0  0  0  0
 24 21  1  0  0  0  0
 25 26  2  0  0  0  0
 25 24  1  0  0  0  0
 27 24  1  0  0  0  0
 28 25  1  0  0  0  0
 29 28  1  0  0  0  0
 30 29  2  0  0  0  0
 31 32  2  0  0  0  0
 31 30  1  0  0  0  0
 32 33  1  0  0  0  0
 33 28  2  0  0  0  0
 34 36  1  0  0  0  0
 34 37  1  0  0  0  0
 34 32  1  0  0  0  0
 35 34  1  0  0  0  0
 38  6  1  0  0  0  0
 39 38  2  0  0  0  0
 40 39  1  0  0  0  0
 41 40  2  0  0  0  0
 41 42  1  0  0  0  0
 42 43  2  0  0  0  0
 43 38  1  0  0  0  0
 44 41  1  0  0  0  0
 45 44  1  0  0  0  0
 46 45  1  0  0  0  0
 47 46  1  0  0  0  0
 47 50  1  0  0  0  0
 48 47  1  0  0  0  0
 49 48  2  0  0  0  0
 51 48  1  0  0  0  0
 51 52  1  0  0  0  0
 52 53  1  0  0  0  0
 53 54  1  0  0  0  0
 54 55  1  0  0  0  0
 55 56  1  0  0  0  0
 56 57  1  0  0  0  0
 58 57  1  0  0  0  0
 58 59  1  0  0  0  0
 60 59  1  0  0  0  0
 61 60  1  0  0  0  0
 62 61  1  0  0  0  0
 63 62  1  0  0  0  0
 64 63  1  0  0  0  0
 64 67  1  0  0  0  0
 65 64  1  0  0  0  0
 66 64  1  0  0  0  0
M  END
>  <minimizedAffinity>
-8.69977379

$$$$

 OpenBabel08202419093D

 67 71  0  0  0  0  0  0  0  0999 V2000
   23.5520   43.4970   18.3990 C   0  0  0  0  0  0  0  0  0  0  0  0
   22.8300   44.6230   18.3600 N   0  0  0  0  0  0  0  0  0  0  0  0
   22.0760   44.7390   17.2730 C   0  0  0  0  0  2  0  0  0  0  0  0
   21.9700   43.8370   16.3110 N   0  0  0  0  0  0  0  0  0  0  0  0
   22.6770   42.7210   16.4810 C   0  0  0  0  0  0  0  0  0  0  0  0
   22.5780   41.7060   15.5380 N   0  0  0  0  0  0  0  0  0  0  0  0
   23.4900   42.5110   17.5050 N   0  0  0  0  0  2  0  0  0  0  0  0
   22.9440   40.8220   15.8550 H   0  0  0  0  0  0  0  0  0  0  0  0
   25.8350   42.8150   19.2510 C   0  0  0  0  0  0  0  0  0  0  0  0
   26.7180   42.6650   20.2740 N   0  0  0  0  0  0  0  0  0  0  0  0
   26.3960   43.1310   21.4920 C   0  0  0  0  0  3  0  0  0  0  0  0
   25.1910   43.7320   21.7840 C   0  0  0  0  0  3  0  0  0  0  0  0
   24.2530   43.8210   20.7650 C   0  0  0  0  0  3  0  0  0  0  0  0
   24.5540   43.3640   19.4610 C   0  0  0  0  0  0  0  0  0  0  0  0
   26.3400   42.5930   17.9320 N   0  0  0  0  0  0  0  0  0  0  0  0
   27.2050   42.0520   18.0060 H   0  0  0  0  0  0  0  0  0  0  0  0
   27.0030   45.5080   18.6620 C   0  0  0  0  0  1  0  0  0  0  0  0
   26.6170   44.9790   17.3060 C   0  0  0  0  0  0  0  0  0  0  0  0
   26.4390   45.9490   16.3100 C   0  0  0  0  0  3  0  0  0  0  0  0
   26.2900   45.5940   14.9720 C   0  0  0  0  0  3  0  0  0  0  0  0
   26.3950   44.2710   14.5650 C   0  0  0  0  0  0  0  0  0  0  0  0
   26.4350   43.2850   15.5700 C   0  0  0  0  0  3  0  0  0  0  0  0
   26.5030   43.6180   16.9490 C   0  0  0  0  0  0  0  0  0  0  0  0
   26.4770   43.8880   13.1970 N   0  0  0  0  0  0  0  0  0  0  0  0
   27.6510   43.8250   12.4520 C   0  0  0  0  0  0  0  0  0  0  0  0
   28.7630   44.0990   12.8540 O   0  0  0  0  0  0  0  0  0  0  0  0
   25.5890   43.7270   12.7340 H   0  0  0  0  0  0  0  0  0  0  0  0
   27.5340   43.4340   10.9980 C   0  0  0  0  0  0  0  0  0  0  0  0
   28.6170   42.9860   10.2390 C   0  0  0  0  0  3  0  0  0  0  0  0
   28.4690   42.7390    8.8720 C   0  0  0  0  0  3  0  0  0  0  0  0
   27.2220   42.8740    8.2580 C   0  0  0  0  0  3  0  0  0  0  0  0
   26.1040   43.2580    9.0120 C   0  0  0  0  0  0  0  0  0  0  0  0
   26.2770   43.5670   10.3760 C   0  0  0  0  0  3  0  0  0  0  0  0
   24.7360   43.3040    8.3680 C   0  0  0  0  0  0  0  0  0  0  0  0
   24.1240   42.0830    8.3250 F   0  0  0  0  0  0  0  0  0  0  0  0
   23.8720   44.1180    9.0350 F   0  0  0  0  0  0  0  0  0  0  0  0
   24.7610   43.7480    7.0840 F   0  0  0  0  0  0  0  0  0  0  0  0
   22.3210   41.8720   14.1730 C   0  0  0  0  0  0  0  0  0  0  0  0
   21.0700   41.5430   13.6290 C   0  0  0  0  0  3  0  0  0  0  0  0
   20.8440   41.5610   12.2540 C   0  0  0  0  0  3  0  0  0  0  0  0
   21.8770   41.9130   11.3930 C   0  0  0  0  0  0  0  0  0  0  0  0
   23.1250   42.2550   11.9210 C   0  0  0  0  0  3  0  0  0  0  0  0
   23.3430   42.2480   13.3030 C   0  0  0  0  0  3  0  0  0  0  0  0
   21.7900   41.9260   10.0280 O   0  0  0  0  0  0  0  0  0  0  0  0
   20.9750   42.9610    9.4700 C   0  0  0  0  0  2  0  0  0  0  0  0
   20.7030   42.6240    8.0040 C   0  0  0  0  0  2  0  0  0  0  0  0
   19.4740   43.2200    7.5190 N   0  0  0  0  0  0  0  0  0  0  0  0
   18.9540   42.8490    6.2980 C   0  0  0  0  0  0  0  0  0  0  0  0
   19.4870   42.0210    5.5630 O   0  0  0  0  0  0  0  0  0  0  0  0
   18.9630   43.8830    8.0940 H   0  0  0  0  0  0  0  0  0  0  0  0
   17.6840   43.5910    5.8920 C   0  0  0  0  0  2  0  0  0  0  0  0
   17.3260   43.3590    4.5340 O   0  0  0  0  0  0  0  0  0  0  0  0
   15.9270   43.0800    4.3920 C   0  0  0  0  0  2  0  0  0  0  0  0
   15.2440   43.3440    5.7260 C   0  0  0  0  0  2  0  0  0  0  0  0
   14.2880   42.3190    5.9900 O   0  0  0  0  0  0  0  0  0  0  0  0
   14.9210   41.1400    6.4830 C   0  0  0  0  0  2  0  0  0  0  0  0
   15.2200   41.3210    7.9630 C   0  0  0  0  0  2  0  0  0  0  0  0
   16.3830   40.5670    8.3120 O   0  0  0  0  0  0  0  0  0  0  0  0
   17.1620   41.2440    9.2920 C   0  0  0  0  0  2  0  0  0  0  0  0
   16.3810   42.4550    9.7880 C   0  0  0  0  0  2  0  0  0  0  0  0
   16.9660   43.6570    9.2670 O   0  0  0  0  0  0  0  0  0  0  0  0
   16.1450   44.7890    9.5590 C   0  0  0  0  0  2  0  0  0  0  0  0
   15.5010   44.5790   10.9280 C   0  0  0  0  0  2  0  0  0  0  0  0
   14.1080   45.1110   10.9330 N   0  0  0  0  0  4  0  0  0  0  0  0
   14.0790   46.1160   10.7230 H   0  0  0  0  0  0  0  0  0  0  0  0
   13.6560   44.9640   11.8440 H   0  0  0  0  0  0  0  0  0  0  0  0
   13.5380   44.6340   10.2150 H   0  0  0  0  0  0  0  0  0  0  0  0
  1 14  1  0  0  0  0
  2  1  2  0  0  0  0
  3  2  1  0  0  0  0
  4  5  2  0  0  0  0
  4  3  1  0  0  0  0
  5  7  1  0  0  0  0
  6  8  1  0  0  0  0
  6  5  1  0  0  0  0
  7  1  1  0  0  0  0
  9 14  2  0  0  0  0
  9 10  1  0  0  0  0
 10 11  2  0  0  0  0
 11 12  1  0  0  0  0
 13 12  2  0  0  0  0
 14 13  1  0  0  0  0
 15 16  1  0  0  0  0
 15  9  1  0  0  0  0
 18 17  1  0  0  0  0
 19 18  2  0  0  0  0
 20 19  1  0  0  0  0
 21 20  2  0  0  0  0
 21 22  1  0  0  0  0
 22 23  2  0  0  0  0
 23 18  1  0  0  0  0
 23 15  1  0  0  0  0
 24 21  1  0  0  0  0
 25 26  2  0  0  0  0
 25 24  1  0  0  0  0
 27 24  1  0  0  0  0
 28 25  1  0  0  0  0
 29 28  2  0  0  0  0
 30 29  1  0  0  0  0
 31 30  2  0  0  0  0
 31 32  1  0  0  0  0
 32 33  2  0  0  0  0
 33 28  1  0  0  0  0
 34 32  1  0  0  0  0
 34 36  1  0  0  0  0
 35 34  1  0  0  0  0
 37 34  1  0  0  0  0
 38  6  1  0  0  0  0
 39 38  1  0  0  0  0
 40 39  2  0  0  0  0
 41 42  2  0  0  0  0
 41 40  1  0  0  0  0
 42 43  1  0  0  0  0
 43 38  2  0  0  0  0
 44 41  1  0  0  0  0
 45 44  1  0  0  0  0
 46 45  1  0  0  0  0
 47 46  1  0  0  0  0
 47 50  1  0  0  0  0
 48 47  1  0  0  0  0
 49 48  2  0  0  0  0
 51 48  1  0  0  0  0
 52 51  1  0  0  0  0
 53 52  1  0  0  0  0
 53 54  1  0  0  0  0
 54 55  1  0  0  0  0
 55 56  1  0  0  0  0
 56 57  1  0  0  0  0
 57 58  1  0  0  0  0
 58 59  1  0  0  0  0
 59 60  1  0  0  0  0
 61 62  1  0  0  0  0
 61 60  1  0  0  0  0
 62 63  1  0  0  0  0
 63 64  1  0  0  0  0
 64 66  1  0  0  0  0
 65 64  1  0  0  0  0
 67 64  1  0  0  0  0
M  END
>  <minimizedAffinity>
-8.60590839

$$$$

 OpenBabel08202419093D

 67 71  0  0  0  0  0  0  0  0999 V2000
   24.3710   43.9070   16.0040 C   0  0  0  0  0  0  0  0  0  0  0  0
   24.2280   42.5900   16.1960 N   0  0  0  0  0  0  0  0  0  0  0  0
   23.2390   42.0500   15.4940 C   0  0  0  0  0  2  0  0  0  0  0  0
   22.4670   42.6940   14.6330 N   0  0  0  0  0  0  0  0  0  0  0  0
   22.7380   43.9870   14.4640 C   0  0  0  0  0  0  0  0  0  0  0  0
   22.0030   44.7180   13.5400 N   0  0  0  0  0  0  0  0  0  0  0  0
   23.6750   44.6380   15.1360 N   0  0  0  0  0  2  0  0  0  0  0  0
   22.4200   45.6040   13.3000 H   0  0  0  0  0  0  0  0  0  0  0  0
   26.6960   44.3810   16.8820 C   0  0  0  0  0  0  0  0  0  0  0  0
   27.5250   45.0370   17.7380 N   0  0  0  0  0  0  0  0  0  0  0  0
   27.0230   46.0010   18.5270 C   0  0  0  0  0  3  0  0  0  0  0  0
   25.6910   46.3500   18.5500 C   0  0  0  0  0  3  0  0  0  0  0  0
   24.8240   45.6350   17.7360 C   0  0  0  0  0  3  0  0  0  0  0  0
   25.3080   44.6260   16.8720 C   0  0  0  0  0  0  0  0  0  0  0  0
   27.3190   43.6010   15.8600 N   0  0  0  0  0  0  0  0  0  0  0  0
   28.0940   43.0800   16.2790 H   0  0  0  0  0  0  0  0  0  0  0  0
   29.9580   45.1310   15.4490 C   0  0  0  0  0  1  0  0  0  0  0  0
   28.8380   44.9730   14.4550 C   0  0  0  0  0  0  0  0  0  0  0  0
   28.9830   45.7000   13.2650 C   0  0  0  0  0  3  0  0  0  0  0  0
   28.1360   45.4890   12.1800 C   0  0  0  0  0  3  0  0  0  0  0  0
   27.1700   44.4920   12.2080 C   0  0  0  0  0  0  0  0  0  0  0  0
   26.9300   43.8560   13.4410 C   0  0  0  0  0  3  0  0  0  0  0  0
   27.7250   44.1150   14.5890 C   0  0  0  0  0  0  0  0  0  0  0  0
   26.4420   44.0900   11.0520 N   0  0  0  0  0  0  0  0  0  0  0  0
   25.0650   44.2100   10.8920 C   0  0  0  0  0  0  0  0  0  0  0  0
   24.2910   44.6580   11.7110 O   0  0  0  0  0  0  0  0  0  0  0  0
   26.9840   43.6140   10.3390 H   0  0  0  0  0  0  0  0  0  0  0  0
   24.4660   43.6900    9.6060 C   0  0  0  0  0  0  0  0  0  0  0  0
   25.2170   43.4740    8.4490 C   0  0  0  0  0  3  0  0  0  0  0  0
   24.5890   43.0910    7.2600 C   0  0  0  0  0  3  0  0  0  0  0  0
   23.2130   42.8580    7.2290 C   0  0  0  0  0  3  0  0  0  0  0  0
   22.4470   43.0030    8.3940 C   0  0  0  0  0  0  0  0  0  0  0  0
   23.0780   43.4510    9.5710 C   0  0  0  0  0  3  0  0  0  0  0  0
   20.9760   42.6500    8.3820 C   0  0  0  0  0  0  0  0  0  0  0  0
   20.5840   42.0290    7.2300 F   0  0  0  0  0  0  0  0  0  0  0  0
   20.6350   41.7970    9.3870 F   0  0  0  0  0  0  0  0  0  0  0  0
   20.1630   43.7320    8.5110 F   0  0  0  0  0  0  0  0  0  0  0  0
   20.6720   44.4870   13.1770 C   0  0  0  0  0  0  0  0  0  0  0  0
   19.6290   44.6760   14.0960 C   0  0  0  0  0  3  0  0  0  0  0  0
   18.3180   44.3100   13.7980 C   0  0  0  0  0  3  0  0  0  0  0  0
   18.0260   43.7430   12.5620 C   0  0  0  0  0  0  0  0  0  0  0  0
   19.0530   43.5600   11.6320 C   0  0  0  0  0  3  0  0  0  0  0  0
   20.3650   43.9410   11.9310 C   0  0  0  0  0  3  0  0  0  0  0  0
   16.7910   43.3060   12.1730 O   0  0  0  0  0  0  0  0  0  0  0  0
   16.4100   43.6360   10.8340 C   0  0  0  0  0  2  0  0  0  0  0  0
   15.7420   42.4140   10.2050 C   0  0  0  0  0  2  0  0  0  0  0  0
   16.2000   42.1680    8.8520 N   0  0  0  0  0  0  0  0  0  0  0  0
   17.1790   41.2310    8.6080 C   0  0  0  0  0  0  0  0  0  0  0  0
   17.7150   40.5690    9.4940 O   0  0  0  0  0  0  0  0  0  0  0  0
   15.7730   42.6540    8.0700 H   0  0  0  0  0  0  0  0  0  0  0  0
   17.5990   41.1110    7.1450 C   0  0  0  0  0  2  0  0  0  0  0  0
   17.2980   39.8350    6.5930 O   0  0  0  0  0  0  0  0  0  0  0  0
   15.9680   39.7840    6.0620 C   0  0  0  0  0  2  0  0  0  0  0  0
   15.9720   40.4280    4.6830 C   0  0  0  0  0  2  0  0  0  0  0  0
   14.8470   41.2940    4.5510 O   0  0  0  0  0  0  0  0  0  0  0  0
   15.2070   42.6490    4.8110 C   0  0  0  0  0  2  0  0  0  0  0  0
   16.1850   43.1150    3.7420 C   0  0  0  0  0  2  0  0  0  0  0  0
   17.2080   43.9100    4.3440 O   0  0  0  0  0  0  0  0  0  0  0  0
   16.6530   44.9820    5.0980 C   0  0  0  0  0  2  0  0  0  0  0  0
   17.4410   45.1290    6.3930 C   0  0  0  0  0  2  0  0  0  0  0  0
   16.5840   44.8670    7.5150 O   0  0  0  0  0  0  0  0  0  0  0  0
   15.2640   45.3560    7.2700 C   0  0  0  0  0  2  0  0  0  0  0  0
   14.8480   46.2360    8.4480 C   0  0  0  0  0  2  0  0  0  0  0  0
   13.7850   45.5610    9.2470 N   0  0  0  0  0  4  0  0  0  0  0  0
   12.9460   45.3690    8.6870 H   0  0  0  0  0  0  0  0  0  0  0  0
   13.5040   46.1350   10.0520 H   0  0  0  0  0  0  0  0  0  0  0  0
   14.1250   44.6550    9.6060 H   0  0  0  0  0  0  0  0  0  0  0  0
  1  2  2  0  0  0  0
  1 14  1  0  0  0  0
  3  2  1  0  0  0  0
  4  3  1  0  0  0  0
  5  4  2  0  0  0  0
  5  7  1  0  0  0  0
  6  5  1  0  0  0  0
  7  1  1  0  0  0  0
  8  6  1  0  0  0  0
  9 10  1  0  0  0  0
 10 11  2  0  0  0  0
 11 12  1  0  0  0  0
 13 12  2  0  0  0  0
 14  9  2  0  0  0  0
 14 13  1  0  0  0  0
 15 16  1  0  0  0  0
 15  9  1  0  0  0  0
 18 23  1  0  0  0  0
 18 17  1  0  0  0  0
 19 18  2  0  0  0  0
 20 21  2  0  0  0  0
 20 19  1  0  0  0  0
 21 22  1  0  0  0  0
 22 23  2  0  0  0  0
 23 15  1  0  0  0  0
 24 21  1  0  0  0  0
 25 24  1  0  0  0  0
 25 26  2  0  0  0  0
 27 24  1  0  0  0  0
 28 25  1  0  0  0  0
 29 28  2  0  0  0  0
 30 29  1  0  0  0  0
 31 30  2  0  0  0  0
 31 32  1  0  0  0  0
 32 33  2  0  0  0  0
 33 28  1  0  0  0  0
 34 32  1  0  0  0  0
 34 37  1  0  0  0  0
 34 36  1  0  0  0  0
 35 34  1  0  0  0  0
 38  6  1  0  0  0  0
 38 39  1  0  0  0  0
 40 39  2  0  0  0  0
 41 40  1  0  0  0  0
 42 43  1  0  0  0  0
 42 41  2  0  0  0  0
 43 38  2  0  0  0  0
 44 41  1  0  0  0  0
 45 44  1  0  0  0  0
 46 45  1  0  0  0  0
 47 46  1  0  0  0  0
 48 47  1  0  0  0  0
 48 49  2  0  0  0  0
 50 47  1  0  0  0  0
 51 48  1  0  0  0  0
 52 51  1  0  0  0  0
 53 52  1  0  0  0  0
 54 53  1  0  0  0  0
 55 54  1  0  0  0  0
 55 56  1  0  0  0  0
 57 58  1  0  0  0  0
 57 56  1  0  0  0  0
 58 59  1  0  0  0  0
 59 60  1  0  0  0  0
 60 61  1  0  0  0  0
 62 61  1  0  0  0  0
 62 63  1  0  0  0  0
 63 64  1  0  0  0  0
 64 67  1  0  0  0  0
 64 66  1  0  0  0  0
 65 64  1  0  0  0  0
M  END
>  <minimizedAffinity>
-8.39758301

$$$$

 OpenBabel08202419093D

 67 71  0  0  0  0  0  0  0  0999 V2000
   22.0910   43.2670   15.1110 C   0  0  0  0  0  0  0  0  0  0  0  0
   22.7560   42.1100   15.0040 N   0  0  0  0  0  0  0  0  0  0  0  0
   22.9150   41.6970   13.7520 C   0  0  0  0  0  2  0  0  0  0  0  0
   22.5200   42.3500   12.6710 N   0  0  0  0  0  0  0  0  0  0  0  0
   21.9310   43.5250   12.8850 C   0  0  0  0  0  0  0  0  0  0  0  0
   21.5330   44.2910   11.7960 N   0  0  0  0  0  0  0  0  0  0  0  0
   21.6860   44.0190   14.0880 N   0  0  0  0  0  2  0  0  0  0  0  0
   21.3240   45.2490   12.0310 H   0  0  0  0  0  0  0  0  0  0  0  0
   22.3870   44.7140   17.1650 C   0  0  0  0  0  0  0  0  0  0  0  0
   22.0200   45.0610   18.4280 N   0  0  0  0  0  0  0  0  0  0  0  0
   20.9290   44.5000   18.9730 C   0  0  0  0  0  3  0  0  0  0  0  0
   20.1620   43.5500   18.3340 C   0  0  0  0  0  3  0  0  0  0  0  0
   20.5710   43.1320   17.0760 C   0  0  0  0  0  3  0  0  0  0  0  0
   21.7010   43.7100   16.4520 C   0  0  0  0  0  0  0  0  0  0  0  0
   23.3490   45.5530   16.5240 N   0  0  0  0  0  0  0  0  0  0  0  0
   22.9390   45.9120   15.6590 H   0  0  0  0  0  0  0  0  0  0  0  0
   25.4810   45.5310   18.7440 C   0  0  0  0  0  1  0  0  0  0  0  0
   25.7110   45.3590   17.2650 C   0  0  0  0  0  0  0  0  0  0  0  0
   27.0540   45.2950   16.8690 C   0  0  0  0  0  3  0  0  0  0  0  0
   27.4090   44.9300   15.5730 C   0  0  0  0  0  3  0  0  0  0  0  0
   26.4490   44.5360   14.6500 C   0  0  0  0  0  0  0  0  0  0  0  0
   25.0990   44.7300   14.9970 C   0  0  0  0  0  3  0  0  0  0  0  0
   24.7100   45.1820   16.2860 C   0  0  0  0  0  0  0  0  0  0  0  0
   26.7790   43.9420   13.4000 N   0  0  0  0  0  0  0  0  0  0  0  0
   27.3000   44.6220   12.3020 C   0  0  0  0  0  0  0  0  0  0  0  0
   27.5330   45.8110   12.2490 O   0  0  0  0  0  0  0  0  0  0  0  0
   26.5350   42.9620   13.3040 H   0  0  0  0  0  0  0  0  0  0  0  0
   27.5500   43.8250   11.0440 C   0  0  0  0  0  0  0  0  0  0  0  0
   28.7470   43.1480   10.7960 C   0  0  0  0  0  3  0  0  0  0  0  0
   28.9590   42.5150    9.5680 C   0  0  0  0  0  3  0  0  0  0  0  0
   27.9560   42.4940    8.5980 C   0  0  0  0  0  3  0  0  0  0  0  0
   26.7210   43.1090    8.8490 C   0  0  0  0  0  0  0  0  0  0  0  0
   26.5390   43.8000   10.0630 C   0  0  0  0  0  3  0  0  0  0  0  0
   25.6000   42.9970    7.8390 C   0  0  0  0  0  0  0  0  0  0  0  0
   24.8070   41.9030    8.0380 F   0  0  0  0  0  0  0  0  0  0  0  0
   24.7560   44.0660    7.8740 F   0  0  0  0  0  0  0  0  0  0  0  0
   26.0400   42.9040    6.5560 F   0  0  0  0  0  0  0  0  0  0  0  0
   21.1260   43.8040   10.5500 C   0  0  0  0  0  0  0  0  0  0  0  0
   19.8000   43.4020   10.3300 C   0  0  0  0  0  3  0  0  0  0  0  0
   19.4130   42.7790    9.1450 C   0  0  0  0  0  3  0  0  0  0  0  0
   20.3570   42.5460    8.1510 C   0  0  0  0  0  0  0  0  0  0  0  0
   21.6790   42.9520    8.3520 C   0  0  0  0  0  3  0  0  0  0  0  0
   22.0600   43.5890    9.5370 C   0  0  0  0  0  3  0  0  0  0  0  0
   20.1080   41.9070    6.9680 O   0  0  0  0  0  0  0  0  0  0  0  0
   18.9690   42.3740    6.2400 C   0  0  0  0  0  2  0  0  0  0  0  0
   17.9800   41.2180    6.0950 C   0  0  0  0  0  2  0  0  0  0  0  0
   16.6040   41.6440    6.2570 N   0  0  0  0  0  0  0  0  0  0  0  0
   15.8920   41.2840    7.3800 C   0  0  0  0  0  0  0  0  0  0  0  0
   16.3610   40.5940    8.2830 O   0  0  0  0  0  0  0  0  0  0  0  0
   16.1680   42.2460    5.5670 H   0  0  0  0  0  0  0  0  0  0  0  0
   14.4420   41.7590    7.3970 C   0  0  0  0  0  2  0  0  0  0  0  0
   14.2230   42.8800    6.5480 O   0  0  0  0  0  0  0  0  0  0  0  0
   12.8400   43.0250    6.2030 C   0  0  0  0  0  2  0  0  0  0  0  0
   12.4960   44.5070    6.1970 C   0  0  0  0  0  2  0  0  0  0  0  0
   13.5750   45.2560    6.7520 O   0  0  0  0  0  0  0  0  0  0  0  0
   13.1600   45.9760    7.9110 C   0  0  0  0  0  2  0  0  0  0  0  0
   14.3930   46.4420    8.6710 C   0  0  0  0  0  2  0  0  0  0  0  0
   14.6950   45.5100    9.7110 O   0  0  0  0  0  0  0  0  0  0  0  0
   15.8570   44.7490    9.4000 C   0  0  0  0  0  2  0  0  0  0  0  0
   16.7050   45.5330    8.4070 C   0  0  0  0  0  2  0  0  0  0  0  0
   17.0490   44.6950    7.2940 O   0  0  0  0  0  0  0  0  0  0  0  0
   17.3810   45.4830    6.1490 C   0  0  0  0  0  2  0  0  0  0  0  0
   16.4530   45.0830    5.0020 C   0  0  0  0  0  2  0  0  0  0  0  0
   17.2450   44.8110    3.7680 N   0  0  0  0  0  4  0  0  0  0  0  0
   17.7820   45.6330    3.4660 H   0  0  0  0  0  0  0  0  0  0  0  0
   16.6350   44.5270    2.9900 H   0  0  0  0  0  0  0  0  0  0  0  0
   17.9220   44.0500    3.9350 H   0  0  0  0  0  0  0  0  0  0  0  0
  1 14  1  0  0  0  0
  2  1  2  0  0  0  0
  3  2  1  0  0  0  0
  4  5  2  0  0  0  0
  4  3  1  0  0  0  0
  5  7  1  0  0  0  0
  6  8  1  0  0  0  0
  6  5  1  0  0  0  0
  7  1  1  0  0  0  0
  9 10  1  0  0  0  0
 10 11  2  0  0  0  0
 12 11  1  0  0  0  0
 13 12  2  0  0  0  0
 14 13  1  0  0  0  0
 14  9  2  0  0  0  0
 15  9  1  0  0  0  0
 16 15  1  0  0  0  0
 18 17  1  0  0  0  0
 19 18  1  0  0  0  0
 20 19  2  0  0  0  0
 21 22  2  0  0  0  0
 21 20  1  0  0  0  0
 22 23  1  0  0  0  0
 23 15  1  0  0  0  0
 23 18  2  0  0  0  0
 24 21  1  0  0  0  0
 25 24  1  0  0  0  0
 26 25  2  0  0  0  0
 27 24  1  0  0  0  0
 28 25  1  0  0  0  0
 29 28  1  0  0  0  0
 30 29  2  0  0  0  0
 31 32  2  0  0  0  0
 31 30  1  0  0  0  0
 32 33  1  0  0  0  0
 33 28  2  0  0  0  0
 34 36  1  0  0  0  0
 34 35  1  0  0  0  0
 34 32  1  0  0  0  0
 37 34  1  0  0  0  0
 38  6  1  0  0  0  0
 39 38  1  0  0  0  0
 40 39  2  0  0  0  0
 41 42  2  0  0  0  0
 41 40  1  0  0  0  0
 42 43  1  0  0  0  0
 43 38  2  0  0  0  0
 44 41  1  0  0  0  0
 45 44  1  0  0  0  0
 46 45  1  0  0  0  0
 46 47  1  0  0  0  0
 47 48  1  0  0  0  0
 48 51  1  0  0  0  0
 48 49  2  0  0  0  0
 50 47  1  0  0  0  0
 52 51  1  0  0  0  0
 53 52  1  0  0  0  0
 54 53  1  0  0  0  0
 54 55  1  0  0  0  0
 55 56  1  0  0  0  0
 56 57  1  0  0  0  0
 57 58  1  0  0  0  0
 59 58  1  0  0  0  0
 60 59  1  0  0  0  0
 61 60  1  0  0  0  0
 62 61  1  0  0  0  0
 63 62  1  0  0  0  0
 64 67  1  0  0  0  0
 64 63  1  0  0  0  0
 65 64  1  0  0  0  0
 66 64  1  0  0  0  0
M  END
>  <minimizedAffinity>
-8.33240223

$$$$

 OpenBabel08202419093D

 67 71  0  0  0  0  0  0  0  0999 V2000
   22.0230   42.2500   18.1090 C   0  0  0  0  0  0  0  0  0  0  0  0
   20.8210   42.1870   17.5240 N   0  0  0  0  0  0  0  0  0  0  0  0
   20.8660   42.2350   16.1980 C   0  0  0  0  0  2  0  0  0  0  0  0
   21.9680   42.2910   15.4680 N   0  0  0  0  0  0  0  0  0  0  0  0
   23.1150   42.2780   16.1460 C   0  0  0  0  0  0  0  0  0  0  0  0
   24.3140   42.2840   15.4460 N   0  0  0  0  0  0  0  0  0  0  0  0
   23.1900   42.2690   17.4680 N   0  0  0  0  0  2  0  0  0  0  0  0
   25.1120   42.0320   16.0090 H   0  0  0  0  0  0  0  0  0  0  0  0
   22.6250   43.5130   20.2170 C   0  0  0  0  0  0  0  0  0  0  0  0
   22.6900   43.5850   21.5730 N   0  0  0  0  0  0  0  0  0  0  0  0
   22.1330   42.6090   22.3090 C   0  0  0  0  0  3  0  0  0  0  0  0
   21.5170   41.5030   21.7670 C   0  0  0  0  0  3  0  0  0  0  0  0
   21.5130   41.3820   20.3840 C   0  0  0  0  0  3  0  0  0  0  0  0
   22.0680   42.3940   19.5670 C   0  0  0  0  0  0  0  0  0  0  0  0
   22.9470   44.7050   19.4970 N   0  0  0  0  0  0  0  0  0  0  0  0
   22.3510   44.7510   18.6670 H   0  0  0  0  0  0  0  0  0  0  0  0
   25.1150   45.2820   21.6050 C   0  0  0  0  0  1  0  0  0  0  0  0
   25.1980   45.5450   20.1230 C   0  0  0  0  0  0  0  0  0  0  0  0
   26.3460   46.2260   19.6970 C   0  0  0  0  0  3  0  0  0  0  0  0
   26.6540   46.3500   18.3450 C   0  0  0  0  0  3  0  0  0  0  0  0
   25.8780   45.7320   17.3730 C   0  0  0  0  0  0  0  0  0  0  0  0
   24.6560   45.1670   17.7830 C   0  0  0  0  0  3  0  0  0  0  0  0
   24.2760   45.1020   19.1500 C   0  0  0  0  0  0  0  0  0  0  0  0
   26.2770   45.6390   16.0100 N   0  0  0  0  0  0  0  0  0  0  0  0
   27.5240   45.2040   15.5690 C   0  0  0  0  0  0  0  0  0  0  0  0
   28.4460   44.8560   16.2760 O   0  0  0  0  0  0  0  0  0  0  0  0
   25.6110   45.9960   15.3340 H   0  0  0  0  0  0  0  0  0  0  0  0
   27.7770   45.2120   14.0800 C   0  0  0  0  0  0  0  0  0  0  0  0
   27.5080   46.3150   13.2670 C   0  0  0  0  0  3  0  0  0  0  0  0
   27.6640   46.2280   11.8810 C   0  0  0  0  0  3  0  0  0  0  0  0
   28.1520   45.0580   11.2950 C   0  0  0  0  0  3  0  0  0  0  0  0
   28.4930   43.9590   12.0960 C   0  0  0  0  0  0  0  0  0  0  0  0
   28.2710   44.0340   13.4850 C   0  0  0  0  0  3  0  0  0  0  0  0
   29.1170   42.7310   11.4700 C   0  0  0  0  0  0  0  0  0  0  0  0
   30.3590   42.4510   11.9660 F   0  0  0  0  0  0  0  0  0  0  0  0
   28.3810   41.6050   11.6820 F   0  0  0  0  0  0  0  0  0  0  0  0
   29.2730   42.8340   10.1240 F   0  0  0  0  0  0  0  0  0  0  0  0
   24.5370   42.8700   14.1960 C   0  0  0  0  0  0  0  0  0  0  0  0
   24.0950   44.1720   13.9200 C   0  0  0  0  0  3  0  0  0  0  0  0
   24.1770   44.7150   12.6390 C   0  0  0  0  0  3  0  0  0  0  0  0
   24.7080   43.9550   11.6030 C   0  0  0  0  0  0  0  0  0  0  0  0
   25.1630   42.6600   11.8660 C   0  0  0  0  0  3  0  0  0  0  0  0
   25.0910   42.1240   13.1560 C   0  0  0  0  0  3  0  0  0  0  0  0
   24.8000   44.3610   10.3000 O   0  0  0  0  0  0  0  0  0  0  0  0
   25.6810   43.5950    9.4740 C   0  0  0  0  0  2  0  0  0  0  0  0
   24.9090   43.1410    8.2350 C   0  0  0  0  0  2  0  0  0  0  0  0
   23.4740   43.2630    8.4020 N   0  0  0  0  0  0  0  0  0  0  0  0
   22.7380   42.2080    8.8930 C   0  0  0  0  0  0  0  0  0  0  0  0
   23.2340   41.1270    9.2050 O   0  0  0  0  0  0  0  0  0  0  0  0
   23.0070   44.1410    8.1990 H   0  0  0  0  0  0  0  0  0  0  0  0
   21.2340   42.4580    8.9700 C   0  0  0  0  0  2  0  0  0  0  0  0
   20.6770   42.8310    7.7160 O   0  0  0  0  0  0  0  0  0  0  0  0
   19.3210   42.3880    7.5820 C   0  0  0  0  0  2  0  0  0  0  0  0
   18.5430   42.8300    8.8130 C   0  0  0  0  0  2  0  0  0  0  0  0
   17.9680   41.6950    9.4550 O   0  0  0  0  0  0  0  0  0  0  0  0
   16.8350   42.0640   10.2390 C   0  0  0  0  0  2  0  0  0  0  0  0
   15.6000   41.3780    9.6750 C   0  0  0  0  0  2  0  0  0  0  0  0
   15.9250   40.7520    8.4330 O   0  0  0  0  0  0  0  0  0  0  0  0
   15.1460   41.2840    7.3670 C   0  0  0  0  0  2  0  0  0  0  0  0
   15.7510   40.8300    6.0450 C   0  0  0  0  0  2  0  0  0  0  0  0
   16.3570   39.5390    6.2070 O   0  0  0  0  0  0  0  0  0  0  0  0
   15.6520   38.5490    5.4550 C   0  0  0  0  0  2  0  0  0  0  0  0
   15.5710   39.0130    4.0020 C   0  0  0  0  0  2  0  0  0  0  0  0
   16.4700   38.1870    3.1450 N   0  0  0  0  0  4  0  0  0  0  0  0
   17.4510   38.2520    3.4420 H   0  0  0  0  0  0  0  0  0  0  0  0
   16.4170   38.4780    2.1600 H   0  0  0  0  0  0  0  0  0  0  0  0
   16.2030   37.1910    3.1970 H   0  0  0  0  0  0  0  0  0  0  0  0
  1 14  1  0  0  0  0
  2  1  2  0  0  0  0
  3  2  1  0  0  0  0
  4  5  2  0  0  0  0
  4  3  1  0  0  0  0
  5  7  1  0  0  0  0
  6  8  1  0  0  0  0
  6  5  1  0  0  0  0
  7  1  1  0  0  0  0
  9 10  1  0  0  0  0
 10 11  2  0  0  0  0
 12 11  1  0  0  0  0
 13 12  2  0  0  0  0
 14  9  2  0  0  0  0
 14 13  1  0  0  0  0
 15  9  1  0  0  0  0
 16 15  1  0  0  0  0
 18 17  1  0  0  0  0
 19 18  1  0  0  0  0
 20 19  2  0  0  0  0
 21 22  2  0  0  0  0
 21 20  1  0  0  0  0
 22 23  1  0  0  0  0
 23 15  1  0  0  0  0
 23 18  2  0  0  0  0
 24 21  1  0  0  0  0
 25 24  1  0  0  0  0
 25 26  2  0  0  0  0
 27 24  1  0  0  0  0
 28 25  1  0  0  0  0
 29 28  2  0  0  0  0
 30 29  1  0  0  0  0
 31 30  2  0  0  0  0
 31 32  1  0  0  0  0
 32 33  2  0  0  0  0
 33 28  1  0  0  0  0
 34 36  1  0  0  0  0
 34 35  1  0  0  0  0
 34 32  1  0  0  0  0
 37 34  1  0  0  0  0
 38  6  1  0  0  0  0
 39 38  1  0  0  0  0
 40 39  2  0  0  0  0
 41 42  2  0  0  0  0
 41 40  1  0  0  0  0
 42 43  1  0  0  0  0
 43 38  2  0  0  0  0
 44 41  1  0  0  0  0
 45 44  1  0  0  0  0
 46 47  1  0  0  0  0
 46 45  1  0  0  0  0
 47 48  1  0  0  0  0
 48 51  1  0  0  0  0
 48 49  2  0  0  0  0
 50 47  1  0  0  0  0
 52 51  1  0  0  0  0
 53 52  1  0  0  0  0
 53 54  1  0  0  0  0
 54 55  1  0  0  0  0
 55 56  1  0  0  0  0
 57 56  1  0  0  0  0
 58 57  1  0  0  0  0
 59 58  1  0  0  0  0
 60 61  1  0  0  0  0
 60 59  1  0  0  0  0
 62 61  1  0  0  0  0
 63 62  1  0  0  0  0
 64 67  1  0  0  0  0
 64 65  1  0  0  0  0
 64 63  1  0  0  0  0
 66 64  1  0  0  0  0
M  END
>  <minimizedAffinity>
-8.29995441

$$$$

 OpenBabel08202419093D

 67 71  0  0  0  0  0  0  0  0999 V2000
   21.1010   43.6870   16.3930 C   0  0  0  0  0  0  0  0  0  0  0  0
   21.3950   44.9670   16.1350 N   0  0  0  0  0  0  0  0  0  0  0  0
   21.1860   45.3220   14.8730 C   0  0  0  0  0  2  0  0  0  0  0  0
   20.6890   44.5410   13.9280 N   0  0  0  0  0  0  0  0  0  0  0  0
   20.3640   43.3060   14.3060 C   0  0  0  0  0  0  0  0  0  0  0  0
   19.7900   42.4430   13.3810 N   0  0  0  0  0  0  0  0  0  0  0  0
   20.5620   42.8320   15.5260 N   0  0  0  0  0  2  0  0  0  0  0  0
   19.3600   41.6320   13.7960 H   0  0  0  0  0  0  0  0  0  0  0  0
   22.6050   43.5860   18.4260 C   0  0  0  0  0  0  0  0  0  0  0  0
   22.9430   43.0280   19.6180 N   0  0  0  0  0  0  0  0  0  0  0  0
   22.1340   42.1040   20.1630 C   0  0  0  0  0  3  0  0  0  0  0  0
   20.9790   41.6520   19.5620 C   0  0  0  0  0  3  0  0  0  0  0  0
   20.6660   42.1600   18.3090 C   0  0  0  0  0  3  0  0  0  0  0  0
   21.4750   43.1510   17.7050 C   0  0  0  0  0  0  0  0  0  0  0  0
   23.3160   44.7670   18.0480 N   0  0  0  0  0  0  0  0  0  0  0  0
   22.7180   45.3190   17.4280 H   0  0  0  0  0  0  0  0  0  0  0  0
   25.7830   44.7520   19.8880 C   0  0  0  0  0  1  0  0  0  0  0  0
   25.7670   44.9580   18.3950 C   0  0  0  0  0  0  0  0  0  0  0  0
   27.0020   45.2870   17.8200 C   0  0  0  0  0  3  0  0  0  0  0  0
   27.1760   45.3000   16.4380 C   0  0  0  0  0  3  0  0  0  0  0  0
   26.1560   44.9060   15.5830 C   0  0  0  0  0  0  0  0  0  0  0  0
   24.8800   44.7090   16.1440 C   0  0  0  0  0  3  0  0  0  0  0  0
   24.6550   44.7740   17.5450 C   0  0  0  0  0  0  0  0  0  0  0  0
   26.3570   44.6850   14.1920 N   0  0  0  0  0  0  0  0  0  0  0  0
   26.5850   43.4440   13.6030 C   0  0  0  0  0  0  0  0  0  0  0  0
   26.6570   42.3840   14.1870 O   0  0  0  0  0  0  0  0  0  0  0  0
   26.4090   45.5210   13.6200 H   0  0  0  0  0  0  0  0  0  0  0  0
   26.8160   43.4140   12.1100 C   0  0  0  0  0  0  0  0  0  0  0  0
   28.0870   43.3390   11.5380 C   0  0  0  0  0  3  0  0  0  0  0  0
   28.2440   43.4200   10.1510 C   0  0  0  0  0  3  0  0  0  0  0  0
   27.1290   43.5120    9.3160 C   0  0  0  0  0  3  0  0  0  0  0  0
   25.8380   43.5210    9.8630 C   0  0  0  0  0  0  0  0  0  0  0  0
   25.6930   43.5040   11.2640 C   0  0  0  0  0  3  0  0  0  0  0  0
   24.6300   43.5170    8.9530 C   0  0  0  0  0  0  0  0  0  0  0  0
   23.5620   44.1880    9.4780 F   0  0  0  0  0  0  0  0  0  0  0  0
   24.8770   44.1140    7.7530 F   0  0  0  0  0  0  0  0  0  0  0  0
   24.1760   42.2680    8.6680 F   0  0  0  0  0  0  0  0  0  0  0  0
   20.0150   42.4470   12.0000 C   0  0  0  0  0  0  0  0  0  0  0  0
   21.1310   41.7990   11.4490 C   0  0  0  0  0  3  0  0  0  0  0  0
   21.4490   41.9160   10.0970 C   0  0  0  0  0  3  0  0  0  0  0  0
   20.6480   42.6920    9.2680 C   0  0  0  0  0  0  0  0  0  0  0  0
   19.5260   43.3330    9.8000 C   0  0  0  0  0  3  0  0  0  0  0  0
   19.2030   43.2020   11.1550 C   0  0  0  0  0  3  0  0  0  0  0  0
   20.8820   42.9170    7.9390 O   0  0  0  0  0  0  0  0  0  0  0  0
   19.7190   43.1130    7.1300 C   0  0  0  0  0  2  0  0  0  0  0  0
   19.5780   41.9170    6.1890 C   0  0  0  0  0  2  0  0  0  0  0  0
   18.2800   41.8710    5.5440 N   0  0  0  0  0  0  0  0  0  0  0  0
   17.3790   40.8800    5.8630 C   0  0  0  0  0  0  0  0  0  0  0  0
   17.6120   39.9950    6.6840 O   0  0  0  0  0  0  0  0  0  0  0  0
   18.0090   42.5930    4.8850 H   0  0  0  0  0  0  0  0  0  0  0  0
   16.0730   40.9240    5.0740 C   0  0  0  0  0  2  0  0  0  0  0  0
   16.2630   41.3360    3.7250 O   0  0  0  0  0  0  0  0  0  0  0  0
   15.4080   42.4310    3.3770 C   0  0  0  0  0  2  0  0  0  0  0  0
   16.2720   43.5800    2.8780 C   0  0  0  0  0  2  0  0  0  0  0  0
   17.2190   43.9430    3.8810 O   0  0  0  0  0  0  0  0  0  0  0  0
   17.0030   45.2780    4.3350 C   0  0  0  0  0  2  0  0  0  0  0  0
   16.8730   45.2690    5.8510 C   0  0  0  0  0  2  0  0  0  0  0  0
   15.7610   44.4570    6.2300 O   0  0  0  0  0  0  0  0  0  0  0  0
   15.2340   44.8600    7.4900 C   0  0  0  0  0  2  0  0  0  0  0  0
   16.0240   44.1680    8.5940 C   0  0  0  0  0  2  0  0  0  0  0  0
   16.3860   42.8440    8.1750 O   0  0  0  0  0  0  0  0  0  0  0  0
   15.5230   41.8710    8.7680 C   0  0  0  0  0  2  0  0  0  0  0  0
   16.1940   41.3370   10.0330 C   0  0  0  0  0  2  0  0  0  0  0  0
   17.3380   40.4490    9.6760 N   0  0  0  0  0  4  0  0  0  0  0  0
   17.0380   39.6420    9.1150 H   0  0  0  0  0  0  0  0  0  0  0  0
   17.8090   40.0920   10.5170 H   0  0  0  0  0  0  0  0  0  0  0  0
   18.0350   40.9650    9.1170 H   0  0  0  0  0  0  0  0  0  0  0  0
  1 14  1  0  0  0  0
  2  1  2  0  0  0  0
  3  2  1  0  0  0  0
  4  5  2  0  0  0  0
  4  3  1  0  0  0  0
  5  7  1  0  0  0  0
  6  8  1  0  0  0  0
  6  5  1  0  0  0  0
  7  1  1  0  0  0  0
  9 10  1  0  0  0  0
 10 11  2  0  0  0  0
 12 11  1  0  0  0  0
 13 12  2  0  0  0  0
 14 13  1  0  0  0  0
 14  9  2  0  0  0  0
 15  9  1  0  0  0  0
 16 15  1  0  0  0  0
 18 17  1  0  0  0  0
 19 18  1  0  0  0  0
 20 19  2  0  0  0  0
 21 22  2  0  0  0  0
 21 20  1  0  0  0  0
 22 23  1  0  0  0  0
 23 15  1  0  0  0  0
 23 18  2  0  0  0  0
 24 21  1  0  0  0  0
 25 26  2  0  0  0  0
 25 24  1  0  0  0  0
 27 24  1  0  0  0  0
 28 25  1  0  0  0  0
 29 28  1  0  0  0  0
 30 29  2  0  0  0  0
 31 32  2  0  0  0  0
 31 30  1  0  0  0  0
 32 33  1  0  0  0  0
 33 28  2  0  0  0  0
 34 35  1  0  0  0  0
 34 32  1  0  0  0  0
 36 34  1  0  0  0  0
 37 34  1  0  0  0  0
 38  6  1  0  0  0  0
 39 38  1  0  0  0  0
 40 39  2  0  0  0  0
 41 42  2  0  0  0  0
 41 40  1  0  0  0  0
 42 43  1  0  0  0  0
 43 38  2  0  0  0  0
 44 41  1  0  0  0  0
 45 44  1  0  0  0  0
 46 45  1  0  0  0  0
 47 48  1  0  0  0  0
 47 46  1  0  0  0  0
 48 49  2  0  0  0  0
 50 47  1  0  0  0  0
 51 48  1  0  0  0  0
 52 51  1  0  0  0  0
 53 52  1  0  0  0  0
 54 53  1  0  0  0  0
 54 55  1  0  0  0  0
 55 56  1  0  0  0  0
 56 57  1  0  0  0  0
 57 58  1  0  0  0  0
 58 59  1  0  0  0  0
 59 60  1  0  0  0  0
 61 60  1  0  0  0  0
 61 62  1  0  0  0  0
 62 63  1  0  0  0  0
 64 63  1  0  0  0  0
 64 66  1  0  0  0  0
 65 64  1  0  0  0  0
 67 64  1  0  0  0  0
M  END
>  <minimizedAffinity>
-8.23440742

$$$$

 OpenBabel08202419093D

 67 71  0  0  0  0  0  0  0  0999 V2000
   21.4210   43.0420   17.7430 C   0  0  0  0  0  0  0  0  0  0  0  0
   21.0730   44.2980   17.4370 N   0  0  0  0  0  0  0  0  0  0  0  0
   21.1050   44.5620   16.1370 C   0  0  0  0  0  2  0  0  0  0  0  0
   21.3990   43.6940   15.1830 N   0  0  0  0  0  0  0  0  0  0  0  0
   21.6630   42.4520   15.5880 C   0  0  0  0  0  0  0  0  0  0  0  0
   21.9310   41.4730   14.6410 N   0  0  0  0  0  0  0  0  0  0  0  0
   21.6960   42.0830   16.8600 N   0  0  0  0  0  2  0  0  0  0  0  0
   21.8800   40.5340   15.0040 H   0  0  0  0  0  0  0  0  0  0  0  0
   22.4710   43.4070   20.0160 C   0  0  0  0  0  0  0  0  0  0  0  0
   22.6420   43.0330   21.3120 N   0  0  0  0  0  0  0  0  0  0  0  0
   21.8990   42.0300   21.8090 C   0  0  0  0  0  3  0  0  0  0  0  0
   20.9810   41.3210   21.0650 C   0  0  0  0  0  3  0  0  0  0  0  0
   20.8550   41.6450   19.7220 C   0  0  0  0  0  3  0  0  0  0  0  0
   21.5990   42.7070   19.1580 C   0  0  0  0  0  0  0  0  0  0  0  0
   23.0440   44.6580   19.6300 N   0  0  0  0  0  0  0  0  0  0  0  0
   22.5530   44.9960   18.7990 H   0  0  0  0  0  0  0  0  0  0  0  0
   24.8460   45.5540   21.9600 C   0  0  0  0  0  1  0  0  0  0  0  0
   25.2190   45.4780   20.5020 C   0  0  0  0  0  0  0  0  0  0  0  0
   26.4880   45.9780   20.1800 C   0  0  0  0  0  3  0  0  0  0  0  0
   27.0450   45.7820   18.9180 C   0  0  0  0  0  3  0  0  0  0  0  0
   26.3970   45.0130   17.9610 C   0  0  0  0  0  0  0  0  0  0  0  0
   25.0710   44.6270   18.2290 C   0  0  0  0  0  3  0  0  0  0  0  0
   24.4480   44.8880   19.4780 C   0  0  0  0  0  0  0  0  0  0  0  0
   27.0240   44.5980   16.7520 N   0  0  0  0  0  0  0  0  0  0  0  0
   27.0200   45.3180   15.5610 C   0  0  0  0  0  0  0  0  0  0  0  0
   26.4770   46.3870   15.3780 O   0  0  0  0  0  0  0  0  0  0  0  0
   27.4300   43.6690   16.7670 H   0  0  0  0  0  0  0  0  0  0  0  0
   27.7080   44.6950   14.3690 C   0  0  0  0  0  0  0  0  0  0  0  0
   28.7540   43.7770   14.4860 C   0  0  0  0  0  3  0  0  0  0  0  0
   29.4200   43.3140   13.3480 C   0  0  0  0  0  3  0  0  0  0  0  0
   29.0070   43.7120   12.0750 C   0  0  0  0  0  3  0  0  0  0  0  0
   27.9170   44.5810   11.9270 C   0  0  0  0  0  0  0  0  0  0  0  0
   27.2930   45.0920   13.0820 C   0  0  0  0  0  3  0  0  0  0  0  0
   27.4080   44.9290   10.5460 C   0  0  0  0  0  0  0  0  0  0  0  0
   27.9700   44.1670    9.5610 F   0  0  0  0  0  0  0  0  0  0  0  0
   26.0640   44.7460   10.4220 F   0  0  0  0  0  0  0  0  0  0  0  0
   27.6480   46.2200   10.1940 F   0  0  0  0  0  0  0  0  0  0  0  0
   22.5290   41.6750   13.3930 C   0  0  0  0  0  0  0  0  0  0  0  0
   23.8210   42.2130   13.2890 C   0  0  0  0  0  3  0  0  0  0  0  0
   24.3720   42.5570   12.0560 C   0  0  0  0  0  3  0  0  0  0  0  0
   23.6310   42.3660   10.8950 C   0  0  0  0  0  0  0  0  0  0  0  0
   22.3480   41.8200   10.9820 C   0  0  0  0  0  3  0  0  0  0  0  0
   21.8040   41.4630   12.2210 C   0  0  0  0  0  3  0  0  0  0  0  0
   24.0460   42.7040    9.6370 O   0  0  0  0  0  0  0  0  0  0  0  0
   23.3470   42.0680    8.5630 C   0  0  0  0  0  2  0  0  0  0  0  0
   22.7040   43.1510    7.6970 C   0  0  0  0  0  2  0  0  0  0  0  0
   21.6260   42.6350    6.8760 N   0  0  0  0  0  0  0  0  0  0  0  0
   20.3300   42.6450    7.3410 C   0  0  0  0  0  0  0  0  0  0  0  0
   20.0150   43.0730    8.4500 O   0  0  0  0  0  0  0  0  0  0  0  0
   21.8120   42.3010    5.9360 H   0  0  0  0  0  0  0  0  0  0  0  0
   19.3050   42.0270    6.3950 C   0  0  0  0  0  2  0  0  0  0  0  0
   18.5920   43.0050    5.6460 O   0  0  0  0  0  0  0  0  0  0  0  0
   17.5370   43.5980    6.4120 C   0  0  0  0  0  2  0  0  0  0  0  0
   16.6500   42.4870    6.9550 C   0  0  0  0  0  2  0  0  0  0  0  0
   15.7350   43.0220    7.9080 O   0  0  0  0  0  0  0  0  0  0  0  0
   16.3720   43.2520    9.1630 C   0  0  0  0  0  2  0  0  0  0  0  0
   15.9570   44.6200    9.6850 C   0  0  0  0  0  2  0  0  0  0  0  0
   15.8470   44.5740   11.1090 O   0  0  0  0  0  0  0  0  0  0  0  0
   14.5570   44.9970   11.5400 C   0  0  0  0  0  2  0  0  0  0  0  0
   14.7160   45.8560   12.7880 C   0  0  0  0  0  2  0  0  0  0  0  0
   15.3790   47.0840   12.4520 O   0  0  0  0  0  0  0  0  0  0  0  0
   15.0760   48.1020   13.4070 C   0  0  0  0  0  2  0  0  0  0  0  0
   14.7460   49.3890   12.6530 C   0  0  0  0  0  2  0  0  0  0  0  0
   15.8200   49.7000   11.6660 N   0  0  0  0  0  4  0  0  0  0  0  0
   16.7330   49.8270   12.1190 H   0  0  0  0  0  0  0  0  0  0  0  0
   15.6050   50.5570   11.1410 H   0  0  0  0  0  0  0  0  0  0  0  0
   15.9210   48.9290   10.9880 H   0  0  0  0  0  0  0  0  0  0  0  0
  1 14  1  0  0  0  0
  2  1  2  0  0  0  0
  3  2  1  0  0  0  0
  4  5  2  0  0  0  0
  4  3  1  0  0  0  0
  5  7  1  0  0  0  0
  6  8  1  0  0  0  0
  6  5  1  0  0  0  0
  7  1  1  0  0  0  0
  9 10  1  0  0  0  0
 10 11  2  0  0  0  0
 12 11  1  0  0  0  0
 13 12  2  0  0  0  0
 14 13  1  0  0  0  0
 14  9  2  0  0  0  0
 15  9  1  0  0  0  0
 16 15  1  0  0  0  0
 18 17  1  0  0  0  0
 19 18  1  0  0  0  0
 20 19  2  0  0  0  0
 21 22  2  0  0  0  0
 21 20  1  0  0  0  0
 22 23  1  0  0  0  0
 23 15  1  0  0  0  0
 23 18  2  0  0  0  0
 24 27  1  0  0  0  0
 24 21  1  0  0  0  0
 25 24  1  0  0  0  0
 26 25  2  0  0  0  0
 28 29  1  0  0  0  0
 28 25  1  0  0  0  0
 30 29  2  0  0  0  0
 31 30  1  0  0  0  0
 32 31  2  0  0  0  0
 32 33  1  0  0  0  0
 33 28  2  0  0  0  0
 34 32  1  0  0  0  0
 35 34  1  0  0  0  0
 36 34  1  0  0  0  0
 37 34  1  0  0  0  0
 38  6  1  0  0  0  0
 39 38  1  0  0  0  0
 40 39  2  0  0  0  0
 41 42  2  0  0  0  0
 41 40  1  0  0  0  0
 42 43  1  0  0  0  0
 43 38  2  0  0  0  0
 44 41  1  0  0  0  0
 45 44  1  0  0  0  0
 46 45  1  0  0  0  0
 47 48  1  0  0  0  0
 47 46  1  0  0  0  0
 48 49  2  0  0  0  0
 50 47  1  0  0  0  0
 51 48  1  0  0  0  0
 52 51  1  0  0  0  0
 52 53  1  0  0  0  0
 53 54  1  0  0  0  0
 54 55  1  0  0  0  0
 55 56  1  0  0  0  0
 56 57  1  0  0  0  0
 57 58  1  0  0  0  0
 58 59  1  0  0  0  0
 59 60  1  0  0  0  0
 61 60  1  0  0  0  0
 61 62  1  0  0  0  0
 63 62  1  0  0  0  0
 64 65  1  0  0  0  0
 64 63  1  0  0  0  0
 66 64  1  0  0  0  0
 67 64  1  0  0  0  0
M  END
>  <minimizedAffinity>
-8.19130707

$$$$

 OpenBabel08202419093D

 67 71  0  0  0  0  0  0  0  0999 V2000
   17.4310   41.5240    7.2460 C   0  0  0  0  0  0  0  0  0  0  0  0
   16.9400   41.6170    8.4870 N   0  0  0  0  0  0  0  0  0  0  0  0
   17.8010   42.1110    9.3690 C   0  0  0  0  0  2  0  0  0  0  0  0
   19.0240   42.5340    9.0940 N   0  0  0  0  0  0  0  0  0  0  0  0
   19.3900   42.4630    7.8150 C   0  0  0  0  0  0  0  0  0  0  0  0
   20.6420   42.9350    7.4420 N   0  0  0  0  0  0  0  0  0  0  0  0
   18.6300   41.9550    6.8580 N   0  0  0  0  0  2  0  0  0  0  0  0
   20.7450   43.0670    6.4480 H   0  0  0  0  0  0  0  0  0  0  0  0
   15.8010   41.4780    5.3110 C   0  0  0  0  0  0  0  0  0  0  0  0
   15.0330   40.7830    4.4290 N   0  0  0  0  0  0  0  0  0  0  0  0
   15.1310   39.4440    4.3870 C   0  0  0  0  0  3  0  0  0  0  0  0
   15.9500   38.7130    5.2190 C   0  0  0  0  0  3  0  0  0  0  0  0
   16.6800   39.4070    6.1740 C   0  0  0  0  0  3  0  0  0  0  0  0
   16.6270   40.8180    6.2430 C   0  0  0  0  0  0  0  0  0  0  0  0
   15.8930   42.8890    5.1060 N   0  0  0  0  0  0  0  0  0  0  0  0
   16.8160   43.2000    5.4190 H   0  0  0  0  0  0  0  0  0  0  0  0
   13.5720   43.7940    3.2980 C   0  0  0  0  0  1  0  0  0  0  0  0
   13.9630   44.3760    4.6320 C   0  0  0  0  0  0  0  0  0  0  0  0
   13.2520   45.5210    5.0190 C   0  0  0  0  0  3  0  0  0  0  0  0
   13.3600   46.0370    6.3080 C   0  0  0  0  0  3  0  0  0  0  0  0
   14.1110   45.3900    7.2790 C   0  0  0  0  0  0  0  0  0  0  0  0
   14.9320   44.3250    6.8620 C   0  0  0  0  0  3  0  0  0  0  0  0
   14.9040   43.8310    5.5300 C   0  0  0  0  0  0  0  0  0  0  0  0
   14.0680   45.7500    8.6560 N   0  0  0  0  0  0  0  0  0  0  0  0
   13.8180   47.0310    9.1410 C   0  0  0  0  0  0  0  0  0  0  0  0
   13.6180   48.0190    8.4670 O   0  0  0  0  0  0  0  0  0  0  0  0
   14.3150   45.0140    9.3080 H   0  0  0  0  0  0  0  0  0  0  0  0
   13.8510   47.2270   10.6390 C   0  0  0  0  0  0  0  0  0  0  0  0
   13.1110   46.4420   11.5260 C   0  0  0  0  0  3  0  0  0  0  0  0
   13.1020   46.7380   12.8920 C   0  0  0  0  0  3  0  0  0  0  0  0
   13.8800   47.7810   13.3970 C   0  0  0  0  0  3  0  0  0  0  0  0
   14.6830   48.5410   12.5350 C   0  0  0  0  0  0  0  0  0  0  0  0
   14.6370   48.2760   11.1520 C   0  0  0  0  0  3  0  0  0  0  0  0
   15.6030   49.6020   13.0970 C   0  0  0  0  0  0  0  0  0  0  0  0
   15.0630   50.8560   13.0540 F   0  0  0  0  0  0  0  0  0  0  0  0
   15.9120   49.3870   14.4060 F   0  0  0  0  0  0  0  0  0  0  0  0
   16.7890   49.6900   12.4380 F   0  0  0  0  0  0  0  0  0  0  0  0
   21.7920   42.9430    8.2390 C   0  0  0  0  0  0  0  0  0  0  0  0
   21.8710   43.7500    9.3840 C   0  0  0  0  0  3  0  0  0  0  0  0
   23.0570   43.8820   10.1040 C   0  0  0  0  0  3  0  0  0  0  0  0
   24.1940   43.2010    9.6840 C   0  0  0  0  0  0  0  0  0  0  0  0
   24.1270   42.3830    8.5530 C   0  0  0  0  0  3  0  0  0  0  0  0
   22.9310   42.2430    7.8420 C   0  0  0  0  0  3  0  0  0  0  0  0
   25.4220   43.2840   10.2810 O   0  0  0  0  0  0  0  0  0  0  0  0
   26.1860   44.4510    9.9650 C   0  0  0  0  0  2  0  0  0  0  0  0
   27.6680   44.1210   10.1380 C   0  0  0  0  0  2  0  0  0  0  0  0
   28.0620   44.0610   11.5320 N   0  0  0  0  0  0  0  0  0  0  0  0
   29.0560   43.1990   11.9390 C   0  0  0  0  0  0  0  0  0  0  0  0
   29.6490   42.4430   11.1710 O   0  0  0  0  0  0  0  0  0  0  0  0
   27.6390   44.6850   12.2120 H   0  0  0  0  0  0  0  0  0  0  0  0
   29.3340   43.2050   13.4390 C   0  0  0  0  0  2  0  0  0  0  0  0
   30.3260   44.1560   13.8080 O   0  0  0  0  0  0  0  0  0  0  0  0
   29.9390   44.9090   14.9640 C   0  0  0  0  0  2  0  0  0  0  0  0
   28.5220   44.5100   15.3500 C   0  0  0  0  0  2  0  0  0  0  0  0
   27.7830   45.6660   15.7360 O   0  0  0  0  0  0  0  0  0  0  0  0
   26.4100   45.5490   15.3660 C   0  0  0  0  0  2  0  0  0  0  0  0
   26.1410   44.1220   14.9120 C   0  0  0  0  0  2  0  0  0  0  0  0
   25.6450   44.1320   13.5720 O   0  0  0  0  0  0  0  0  0  0  0  0
   24.3260   43.5990   13.5070 C   0  0  0  0  0  2  0  0  0  0  0  0
   24.1160   42.6660   14.6930 C   0  0  0  0  0  2  0  0  0  0  0  0
   22.9110   41.9090   14.5080 O   0  0  0  0  0  0  0  0  0  0  0  0
   22.5360   41.8820   13.1290 C   0  0  0  0  0  2  0  0  0  0  0  0
   21.0130   41.9620   13.0400 C   0  0  0  0  0  2  0  0  0  0  0  0
   20.5370   41.3590   11.7620 N   0  0  0  0  0  4  0  0  0  0  0  0
   20.9250   41.8400   10.9420 H   0  0  0  0  0  0  0  0  0  0  0  0
   19.5120   41.3920   11.6940 H   0  0  0  0  0  0  0  0  0  0  0  0
   20.8270   40.3700   11.7000 H   0  0  0  0  0  0  0  0  0  0  0  0
  1  2  2  0  0  0  0
  2  3  1  0  0  0  0
  4  3  1  0  0  0  0
  5  4  2  0  0  0  0
  6  5  1  0  0  0  0
  6 38  1  0  0  0  0
  7  1  1  0  0  0  0
  7  5  1  0  0  0  0
  8  6  1  0  0  0  0
  9 14  1  0  0  0  0
 10  9  2  0  0  0  0
 11 10  1  0  0  0  0
 11 12  2  0  0  0  0
 12 13  1  0  0  0  0
 13 14  2  0  0  0  0
 14  1  1  0  0  0  0
 15  9  1  0  0  0  0
 15 16  1  0  0  0  0
 15 23  1  0  0  0  0
 17 18  1  0  0  0  0
 18 19  2  0  0  0  0
 18 23  1  0  0  0  0
 19 20  1  0  0  0  0
 20 21  2  0  0  0  0
 21 24  1  0  0  0  0
 22 21  1  0  0  0  0
 23 22  2  0  0  0  0
 24 25  1  0  0  0  0
 24 27  1  0  0  0  0
 25 28  1  0  0  0  0
 26 25  2  0  0  0  0
 28 33  2  0  0  0  0
 28 29  1  0  0  0  0
 29 30  2  0  0  0  0
 30 31  1  0  0  0  0
 32 34  1  0  0  0  0
 32 31  2  0  0  0  0
 33 32  1  0  0  0  0
 34 36  1  0  0  0  0
 35 34  1  0  0  0  0
 37 34  1  0  0  0  0
 38 39  1  0  0  0  0
 39 40  2  0  0  0  0
 41 40  1  0  0  0  0
 41 44  1  0  0  0  0
 42 41  2  0  0  0  0
 43 38  2  0  0  0  0
 43 42  1  0  0  0  0
 45 46  1  0  0  0  0
 45 44  1  0  0  0  0
 46 47  1  0  0  0  0
 47 48  1  0  0  0  0
 47 50  1  0  0  0  0
 48 51  1  0  0  0  0
 49 48  2  0  0  0  0
 51 52  1  0  0  0  0
 52 53  1  0  0  0  0
 53 54  1  0  0  0  0
 54 55  1  0  0  0  0
 56 55  1  0  0  0  0
 57 56  1  0  0  0  0
 58 57  1  0  0  0  0
 59 58  1  0  0  0  0
 59 60  1  0  0  0  0
 61 60  1  0  0  0  0
 62 61  1  0  0  0  0
 63 62  1  0  0  0  0
 64 63  1  0  0  0  0
 65 64  1  0  0  0  0
 66 64  1  0  0  0  0
 67 64  1  0  0  0  0
M  END
>  <minimizedAffinity>
-8.11802006

$$$$

 OpenBabel08202419093D

 67 71  0  0  0  0  0  0  0  0999 V2000
   22.0320   43.3050   17.8680 C   0  0  0  0  0  0  0  0  0  0  0  0
   21.4640   42.1140   17.6470 N   0  0  0  0  0  0  0  0  0  0  0  0
   21.5790   41.6890   16.3940 C   0  0  0  0  0  2  0  0  0  0  0  0
   22.2260   42.3170   15.4260 N   0  0  0  0  0  0  0  0  0  0  0  0
   22.8160   43.4610   15.7680 C   0  0  0  0  0  0  0  0  0  0  0  0
   23.5550   44.1530   14.8180 N   0  0  0  0  0  0  0  0  0  0  0  0
   22.7370   43.9990   16.9760 N   0  0  0  0  0  2  0  0  0  0  0  0
   24.1560   44.8620   15.2090 H   0  0  0  0  0  0  0  0  0  0  0  0
   22.6850   43.8330   20.2550 C   0  0  0  0  0  0  0  0  0  0  0  0
   22.4050   44.4030   21.4570 N   0  0  0  0  0  0  0  0  0  0  0  0
   21.3040   45.1610   21.5840 C   0  0  0  0  0  3  0  0  0  0  0  0
   20.4040   45.3740   20.5630 C   0  0  0  0  0  3  0  0  0  0  0  0
   20.6400   44.7350   19.3540 C   0  0  0  0  0  3  0  0  0  0  0  0
   21.7970   43.9450   19.1660 C   0  0  0  0  0  0  0  0  0  0  0  0
   24.0030   43.3080   20.0860 N   0  0  0  0  0  0  0  0  0  0  0  0
   24.2530   42.7870   20.9310 H   0  0  0  0  0  0  0  0  0  0  0  0
   25.4570   45.3060   21.9220 C   0  0  0  0  0  1  0  0  0  0  0  0
   25.6610   45.1210   20.4400 C   0  0  0  0  0  0  0  0  0  0  0  0
   26.5270   46.0420   19.8330 C   0  0  0  0  0  3  0  0  0  0  0  0
   26.9690   45.8650   18.5250 C   0  0  0  0  0  3  0  0  0  0  0  0
   26.6330   44.7290   17.8020 C   0  0  0  0  0  0  0  0  0  0  0  0
   25.6590   43.8750   18.3520 C   0  0  0  0  0  3  0  0  0  0  0  0
   25.1280   44.0780   19.6540 C   0  0  0  0  0  0  0  0  0  0  0  0
   27.2410   44.3980   16.5580 N   0  0  0  0  0  0  0  0  0  0  0  0
   26.9230   44.9770   15.3320 C   0  0  0  0  0  0  0  0  0  0  0  0
   26.0800   45.8300   15.1470 O   0  0  0  0  0  0  0  0  0  0  0  0
   27.8980   43.6260   16.5840 H   0  0  0  0  0  0  0  0  0  0  0  0
   27.6500   44.4660   14.1110 C   0  0  0  0  0  0  0  0  0  0  0  0
   28.7600   43.6220   14.1830 C   0  0  0  0  0  3  0  0  0  0  0  0
   29.4550   43.2670   13.0230 C   0  0  0  0  0  3  0  0  0  0  0  0
   29.0120   43.6980   11.7720 C   0  0  0  0  0  3  0  0  0  0  0  0
   27.8610   44.4910   11.6670 C   0  0  0  0  0  0  0  0  0  0  0  0
   27.2050   44.8970   12.8460 C   0  0  0  0  0  3  0  0  0  0  0  0
   27.3240   44.8710   10.3050 C   0  0  0  0  0  0  0  0  0  0  0  0
   27.9350   44.2000    9.2830 F   0  0  0  0  0  0  0  0  0  0  0  0
   25.9960   44.6000   10.1710 F   0  0  0  0  0  0  0  0  0  0  0  0
   27.4720   46.1910   10.0180 F   0  0  0  0  0  0  0  0  0  0  0  0
   23.3220   44.1620   13.4380 C   0  0  0  0  0  0  0  0  0  0  0  0
   22.4980   45.1350   12.8520 C   0  0  0  0  0  3  0  0  0  0  0  0
   22.1370   45.0710   11.5080 C   0  0  0  0  0  3  0  0  0  0  0  0
   22.6000   44.0230   10.7200 C   0  0  0  0  0  0  0  0  0  0  0  0
   23.4310   43.0540   11.2880 C   0  0  0  0  0  3  0  0  0  0  0  0
   23.8020   43.1290   12.6350 C   0  0  0  0  0  3  0  0  0  0  0  0
   22.2800   43.8310    9.4050 O   0  0  0  0  0  0  0  0  0  0  0  0
   22.1810   42.4680    8.9840 C   0  0  0  0  0  2  0  0  0  0  0  0
   21.9690   42.4420    7.4700 C   0  0  0  0  0  2  0  0  0  0  0  0
   20.8730   43.2930    7.0510 N   0  0  0  0  0  0  0  0  0  0  0  0
   19.6640   42.7430    6.6870 C   0  0  0  0  0  0  0  0  0  0  0  0
   19.4470   41.5320    6.6880 O   0  0  0  0  0  0  0  0  0  0  0  0
   20.9740   44.3030    7.0630 H   0  0  0  0  0  0  0  0  0  0  0  0
   18.6170   43.7500    6.2200 C   0  0  0  0  0  2  0  0  0  0  0  0
   17.7390   44.1500    7.2660 O   0  0  0  0  0  0  0  0  0  0  0  0
   16.4110   44.3880    6.7850 C   0  0  0  0  0  2  0  0  0  0  0  0
   16.2150   43.6030    5.4950 C   0  0  0  0  0  2  0  0  0  0  0  0
   14.8730   43.1300    5.4170 O   0  0  0  0  0  0  0  0  0  0  0  0
   14.5120   42.4030    6.5900 C   0  0  0  0  0  2  0  0  0  0  0  0
   15.0600   40.9880    6.4830 C   0  0  0  0  0  2  0  0  0  0  0  0
   15.2780   40.4590    7.7920 O   0  0  0  0  0  0  0  0  0  0  0  0
   16.3740   41.1040    8.4330 C   0  0  0  0  0  2  0  0  0  0  0  0
   15.9520   41.5000    9.8430 C   0  0  0  0  0  2  0  0  0  0  0  0
   16.0890   42.9190   10.0100 O   0  0  0  0  0  0  0  0  0  0  0  0
   17.0010   43.2190   11.0680 C   0  0  0  0  0  2  0  0  0  0  0  0
   18.4180   42.9120   10.5870 C   0  0  0  0  0  2  0  0  0  0  0  0
   19.0210   44.1170    9.9490 N   0  0  0  0  0  4  0  0  0  0  0  0
   18.4760   44.4370    9.1390 H   0  0  0  0  0  0  0  0  0  0  0  0
   19.9810   43.9300    9.6320 H   0  0  0  0  0  0  0  0  0  0  0  0
   19.0550   44.9010   10.6200 H   0  0  0  0  0  0  0  0  0  0  0  0
  1 14  1  0  0  0  0
  2  1  2  0  0  0  0
  3  2  1  0  0  0  0
  4  5  2  0  0  0  0
  4  3  1  0  0  0  0
  5  7  1  0  0  0  0
  6  8  1  0  0  0  0
  6  5  1  0  0  0  0
  7  1  1  0  0  0  0
  9 10  1  0  0  0  0
 10 11  2  0  0  0  0
 12 11  1  0  0  0  0
 13 12  2  0  0  0  0
 14 13  1  0  0  0  0
 14  9  2  0  0  0  0
 15  9  1  0  0  0  0
 15 16  1  0  0  0  0
 18 17  1  0  0  0  0
 19 18  1  0  0  0  0
 20 19  2  0  0  0  0
 21 22  2  0  0  0  0
 21 20  1  0  0  0  0
 22 23  1  0  0  0  0
 23 15  1  0  0  0  0
 23 18  2  0  0  0  0
 24 27  1  0  0  0  0
 24 21  1  0  0  0  0
 25 24  1  0  0  0  0
 26 25  2  0  0  0  0
 28 29  1  0  0  0  0
 28 25  1  0  0  0  0
 30 29  2  0  0  0  0
 31 30  1  0  0  0  0
 32 31  2  0  0  0  0
 32 33  1  0  0  0  0
 33 28  2  0  0  0  0
 34 32  1  0  0  0  0
 35 34  1  0  0  0  0
 36 34  1  0  0  0  0
 37 34  1  0  0  0  0
 38  6  1  0  0  0  0
 39 38  1  0  0  0  0
 40 39  2  0  0  0  0
 41 42  2  0  0  0  0
 41 40  1  0  0  0  0
 42 43  1  0  0  0  0
 43 38  2  0  0  0  0
 44 41  1  0  0  0  0
 45 44  1  0  0  0  0
 46 45  1  0  0  0  0
 47 50  1  0  0  0  0
 47 46  1  0  0  0  0
 48 49  2  0  0  0  0
 48 47  1  0  0  0  0
 51 48  1  0  0  0  0
 51 52  1  0  0  0  0
 53 52  1  0  0  0  0
 54 53  1  0  0  0  0
 55 54  1  0  0  0  0
 55 56  1  0  0  0  0
 57 56  1  0  0  0  0
 57 58  1  0  0  0  0
 58 59  1  0  0  0  0
 59 60  1  0  0  0  0
 60 61  1  0  0  0  0
 61 62  1  0  0  0  0
 63 62  1  0  0  0  0
 64 63  1  0  0  0  0
 64 67  1  0  0  0  0
 65 64  1  0  0  0  0
 66 64  1  0  0  0  0
M  END
>  <minimizedAffinity>
-8.09972572

$$$$
